<?xml version="1.0" encoding="iso-8859-1"?>
<!--
<ReadMe>

This XML can be imported in Altium Designer 14 using WEBENCH Altium Connector Extension and simulated using WEBENCH Simulation Engine.
The WEBENCH Altium Connector provides an interface to the Texas Instruments WEBENCH Designer Tools as well as to open WEBENCH exported Designs directly from inside Altium Designer.
It also includes the advanced WEBENCH Simulation Engine which can be used for offline circuit simulations.
You will need a activation key from TI to be able to use the WEBENCH Simulation Engine.

Installation guide:
http://www.ti.com/lit/SNVU481
You can download the WEBENCH extension from Altium Designer 14 Extensions.

Connector Details:
http://www.ti.com/lsds/ti/analog/webench/altiumconnector.page

More about WEBENCH simulation export to Altium:
http://www.ti.com/lsds/ti/analog/webench/simexportaltium.page

User Manual:
http://www.ti.com/lit/szzu007

</ReadMe>
-->
<schematic>
  <circuit>
    <text id="T_123456" position="400,-148" fontname="Times New Roman" fontsize="27" bold="0" color="#294901">
      <![CDATA[LM5118 Startup Simulation
(Exported from WEBENCH® Designer)]]>
    </text>
    <text id="T_123456" position="945,-148" fontname="Arial" fontsize="13" bold="1" italic="1" color="#278190" border="1">
      <![CDATA[Title :    LM5118MH/NOPB 12.0V-60.0V to 12.00V @ 
4.0A
-------------------------------------------------------------------------
WEBENCH® Design ID                  :       3
Date of WEBENCH® Export           :       04-Aug-2018
Time of WEBENCH® Export          :       5:23:52 AM
WEBENCH® Export Tool Version :       E1.67-X2.27]]>
    </text>
    <component type="Cout" typeid="57" position="3450,940" mirrored="0" nodematch="0" macrotype="2" orientation="0">
			<parameter idx="0" encrypted="0">
        <![CDATA[
***********************************
*     Created by WB Importer      *
***********************************
.SUBCKT LM5118_BUCKBOOST_BLOCK_WITH_VCCX_Cout_WB_CAP_TANTALUM 13 2
C3 13 11 6.451625E-5 IC=0.0
C4 13 3 3.2258125E-5 IC=0.0
C5 13 4 1.61290625E-5 IC=0.0
R1 4 5 0.007
R2 3 6 0.00504
R3 11 7 0.0098
R4 12 8 0.012991999999999998
C6 13 9 2.58065E-4 IC=0.0
R5 13 0 1000000.0
R6 9 10 0.034999999999999996
L1 5 2 8.0E-9
L2 6 2 8.0E-9
L3 7 2 8.0E-9
L4 8 2 8.0E-9
L5 10 2 8.0E-9
R8 2 0 1000000.0
C2 13 12 1.290325E-4 IC=0.0
.ENDS]]>
      </parameter>
			<image>
				<label text="Cout" position="3456,918" textroot=" " orientation="0" color=""/>  <hotzone points="-24,60,24,-60"/>
        <shape type="line" width="Hair" color="#0000ff" points="0,-60,0,-40"/>
        <shape type="line" width="Hair" color="#0000ff" points="0,60,0,40"/>
        <shape type="line" width="1" color="#0000ff" points="24,-6,-24,-6"/>
        <shape type="line" width="1" color="#0000ff" points="0,40,0,6"/>
        <shape type="line" width="1" color="#0000ff" points="0,-6,0,-40"/>
        <shape type="line" width="1" color="#0000ff" points="24,6,-24,6"/>
        <legend text="100 uF" position="8,18" orientation="0" fontname="Arial" fontsize="12" bold="0" italic="0" color="#229922"/>
        <legend text="28 mOhm" position="8,32" orientation="0" fontname="Arial" fontsize="12" bold="0" italic="0" color="#229922"/>
        <legend text="qty=5" position="8,48" orientation="0" fontname="Arial" fontsize="12" bold="0" italic="0" color="#229922"/>
        <pin position="0,-60" dir="0" length="0" text="13"/>
        <pin position="0,60" dir="0" length="0" text="2"/>
      </image>
		</component>
    <component type="Coutx2" typeid="57" position="3080,940" mirrored="0" nodematch="0" macrotype="2" orientation="0">
			<parameter idx="0" encrypted="0">
        <![CDATA[
***********************************
*     Created by WB Importer      *
***********************************
.SUBCKT LM5118_BUCKBOOST_BLOCK_WITH_VCCX_Coutx2_WB_CAP_CERAMIC 2 4
R1 2 3 0.001
C1 3 4 4.7E-7 IC=0.0
R3 5 4 5
R2 2 4 2.127659574468085E9
R4 3 26 222222.22222222228
R6 3 7 222.22222222222229
C5 7 1 1.4099999999999999E-8 IC=0.0
R7 3 10 22.22222222222223
C6 10 1 1.4099999999999999E-8 IC=0.0
R8 3 13 2.2222222222222228
C7 13 1 1.4099999999999999E-8 IC=0.0
C2 26 1 1.4099999999999999E-8 IC=0.0
R9 3 28 22222.222222222226
C3 28 1 1.4099999999999999E-8 IC=0.0
R10 3 29 2222.2222222222226
C4 29 1 1.4099999999999999E-8 IC=0.0
L8 1 5 15p
R24 1 5 0.003
L12 5 4 1n
.ENDS]]>
      </parameter>
			<image>
				<label text="Coutx2" position="3086,918" textroot=" " orientation="0" color=""/>  <hotzone points="-24,60,24,-60"/>
        <shape type="line" width="Hair" color="#0000ff" points="0,-60,0,-40"/>
        <shape type="line" width="Hair" color="#0000ff" points="0,60,0,40"/>
        <shape type="line" width="1" color="#0000ff" points="24,-6,-24,-6"/>
        <shape type="line" width="1" color="#0000ff" points="0,40,0,6"/>
        <shape type="line" width="1" color="#0000ff" points="0,-6,0,-40"/>
        <shape type="line" width="1" color="#0000ff" points="24,6,-24,6"/>
        <legend text="0.47 uF" position="8,18" orientation="0" fontname="Arial" fontsize="12" bold="0" italic="0" color="#229922"/>
        <legend text="1 mOhm" position="8,32" orientation="0" fontname="Arial" fontsize="12" bold="0" italic="0" color="#229922"/>
        <legend text="" position="8,48" orientation="0" fontname="Arial" fontsize="12" bold="0" italic="0" color="#229922"/>
        <pin position="0,-60" dir="0" length="0" text="2"/>
        <pin position="0,60" dir="0" length="0" text="4"/>
      </image>
		</component>
    <component type="Cramp" typeid="57" position="1060,1240" mirrored="0" nodematch="0" macrotype="2" orientation="0">
			<parameter idx="0" encrypted="0">
        <![CDATA[
***********************************
*     Created by WB Importer      *
***********************************
.subckt LM5118_BUCKBOOST_BLOCK_WITH_VCCX_WB_LM5118_BUCKBOOST_BLOCK_WITH_VCCX_Cramp 1 2
Cramp 1 2 6.2E-10

.ends]]>
      </parameter>
			<image>
				<label text="Cramp" position="1066,1218" textroot=" " orientation="0" color=""/>  <hotzone points="-24,60,24,-60"/>
        <shape type="line" width="Hair" color="#0000ff" points="0,-60,0,-40"/>
        <shape type="line" width="Hair" color="#0000ff" points="0,60,0,40"/>
        <shape type="line" width="1" color="#0000ff" points="24,-6,-24,-6"/>
        <shape type="line" width="1" color="#0000ff" points="0,40,0,6"/>
        <shape type="line" width="1" color="#0000ff" points="0,-6,0,-40"/>
        <shape type="line" width="1" color="#0000ff" points="24,6,-24,6"/>
        <legend text="0.62 nF" position="8,18" orientation="0" fontname="Arial" fontsize="12" bold="0" italic="0" color="#229922"/>
        <legend text="" position="8,32" orientation="0" fontname="Arial" fontsize="12" bold="0" italic="0" color="#229922"/>
        <legend text="" position="8,48" orientation="0" fontname="Arial" fontsize="12" bold="0" italic="0" color="#229922"/>
        <pin position="0,-60" dir="0" length="0" text="1"/>
        <pin position="0,60" dir="0" length="0" text="2"/>
      </image>
		</component>
    <component type="D2" typeid="57" position="2900,720" mirrored="0" nodematch="0" macrotype="2" orientation="0">
			<parameter idx="0" encrypted="0">
        <![CDATA[*****************************************************************************
** LM5118_BUCKBOOST_BLOCK_WITH_VCCX.WB_LM5118_BUCKBOOST_BLOCK_WITH_VCCX.D2 Spice Model
*****************************************************************************
** (C) Copyright 2018 Texas Instruments Incorporated. All rights reserved.
** This model is designed as an aid for customers of Texas Instruments.
** TI and its licensors and suppliers make no warranties, either expressed
** or implied, with respect to this model, including the warranties of
** merchantability or fitness for a particular purpose. The model is
** provided solely on an "as is" basis. The entire risk as to its quality
** and performance is with the customer
*****************************************************************************
*****************************************************************************

.subckt LM5118_BUCKBOOST_BLOCK_WITH_VCCX_WB_LM5118_BUCKBOOST_BLOCK_WITH_VCCX_D2_ENCR A K
.include pspice://../LM5118_BUCKBOOST_BLOCK_WITH_VCCX.WB_LM5118_BUCKBOOST_BLOCK_WITH_VCCX.D2.enl
XCALL A K LM5118_BUCKBOOST_BLOCK_WITH_VCCX_WB_LM5118_BUCKBOOST_BLOCK_WITH_VCCX_D2 
.ENDS
]]>
      </parameter>
			<image>
				<label text="D2" position="2880,680" textroot=" " orientation="0" color=""/>  <hotzone points="60,20,-60,-20"/>
        <shape type="line" width="Hair" color="#0000ff" points="-20,0,-60,0"/>
        <shape type="line" width="Hair" color="#0000ff" points="60,0,20,0"/>
        <shape type="line" width="1" color="#0000ff" points="26,16,26,20"/>
        <shape type="line" width="1" color="#0000ff" points="26,20,20,20"/>
        <shape type="line" width="1" color="#0000ff" points="20,20,20,-20"/>
        <shape type="line" width="1" color="#0000ff" points="20,-20,12,-20"/>
        <shape type="line" width="1" color="#0000ff" points="12,-20,12,-16"/>
        <shape type="polygon" color="#0000ff" width="1" fill="4278222976" points="20,0,-20,20,-20,-20"/>
        <legend text="10 A" position="-30,40" orientation="0" fontname="Arial" fontsize="12" bold="0" italic="0" color="#229922"/>
        <legend text="1.05 V" position="-30,56" orientation="0" fontname="Arial" fontsize="12" bold="0" italic="0" color="#229922"/>
        <pin position="-60,0" dir="0" length="0" text="A"/>
        <pin position="60,0" dir="0" length="0" text="K"/>
      </image>
		</component>
    <component type="Ground" typeid="2" position="3090,510" mirrored="0" nodematch="0" macrotype="2" orientation="0">
			<parameter idx="0" encrypted="0">
			</parameter>
			<image>
				<label text="GND1" position="3090,510" textroot="GND1" orientation="0" color="#228822"/>
			</image>
		</component>
    <component type="M1" typeid="57" position="2450,460" mirrored="0" nodematch="0" macrotype="2" orientation="0">
			<parameter idx="0" encrypted="0">
        <![CDATA[*****************************************************************************
** LM5118_BUCKBOOST_BLOCK_WITH_VCCX.M1.WB_POWER_N_MOSFET Spice Model
*****************************************************************************
** (C) Copyright 2018 Texas Instruments Incorporated. All rights reserved.
** This model is designed as an aid for customers of Texas Instruments.
** TI and its licensors and suppliers make no warranties, either expressed
** or implied, with respect to this model, including the warranties of
** merchantability or fitness for a particular purpose. The model is
** provided solely on an "as is" basis. The entire risk as to its quality
** and performance is with the customer
*****************************************************************************
*****************************************************************************

.SUBCKT LM5118_BUCKBOOST_BLOCK_WITH_VCCX_M1_WB_POWER_N_MOSFET_ENCR drain gate source
.include pspice://../LM5118_BUCKBOOST_BLOCK_WITH_VCCX.M1.WB_POWER_N_MOSFET.enl
XCALL drain gate source LM5118_BUCKBOOST_BLOCK_WITH_VCCX_M1_WB_POWER_N_MOSFET 
.ENDS
]]>
      </parameter>
			<image>
				<label text="M1" position="2420,380" textroot=" " orientation="0" color=""/>  <hotzone points="-30,-60,30,60"/>
        <shape type="line" width="Hair" color="#0000ff" points="-30,0,-10,0"/>
        <shape type="line" width="Hair" color="#0000ff" points="30,-60,30,-40"/>
        <shape type="line" width="Hair" color="#0000ff" points="30,60,30,40"/>
        <shape type="line" width="1" color="#0000ff" points="8,-20,8,20"/>
        <shape type="line" width="1" color="#0000ff" points="30,-20,30,-16"/>
        <shape type="line" width="1" color="#0000ff" points="30,-16,10,-16"/>
        <shape type="line" width="1" color="#0000ff" points="22,0,30,0"/>
        <shape type="line" width="1" color="#0000ff" points="30,0,30,20"/>
        <shape type="line" width="1" color="#0000ff" points="10,16,28,16"/>
        <shape type="line" width="1" color="#0000ff" points="30,-20,30,-16"/>
        <shape type="line" width="1" color="#0000ff" points="30,-16,8,-16"/>
        <shape type="line" width="1" color="#0000ff" points="8,-20,8,20"/>
        <shape type="line" width="1" color="#0000ff" points="8,16,30,16"/>
        <shape type="line" width="1" color="#0000ff" points="8,0,18,-10"/>
        <shape type="line" width="1" color="#0000ff" points="18,-10,18,10"/>
        <shape type="line" width="1" color="#0000ff" points="18,10,8,0"/>
        <shape type="line" width="1" color="#0000ff" points="18,0,30,0"/>
        <shape type="line" width="1" color="#0000ff" points="30,0,30,20"/>
        <shape type="line" width="1" color="#0000ff" points="-10,0,0,0"/>
        <shape type="line" width="1" color="#0000ff" points="0,20,0,-20"/>
        <shape type="line" width="1" color="#0000ff" points="30,-40,30,-20"/>
        <shape type="line" width="1" color="#0000ff" points="30,20,30,40"/>
        <pin position="30,-60" dir="0" length="0" text="drain"/>
        <pin position="-30,0" dir="0" length="0" text="gate"/>
        <pin position="30,60" dir="0" length="0" text="source"/>
      </image>
		</component>
    <component type="Rfbb" typeid="57" position="1800,1560" mirrored="0" nodematch="0" macrotype="2" orientation="0">
			<parameter idx="0" encrypted="0">
        <![CDATA[
***********************************
*     Created by WB Importer      *
***********************************
.subckt LM5118_BUCKBOOST_BLOCK_WITH_VCCX_WB_LM5118_BUCKBOOST_BLOCK_WITH_VCCX_Rfbb 1 2
Rfbb 1 2 1000.0

.ends]]>
      </parameter>
			<image>
				<label text="Rfbb" position="1770,1536" textroot=" " orientation="0" color=""/>  <hotzone points="-60,-10,60,10"/>
        <shape type="line" width="1" color="#0000ff" points="-60,0,-40,0"/>
        <shape type="line" width="1" color="#0000ff" points="-40,0,-30,-10"/>
        <shape type="line" width="1" color="#0000ff" points="-30,-10,-10,10"/>
        <shape type="line" width="1" color="#0000ff" points="-10,10,10,-10"/>
        <shape type="line" width="1" color="#0000ff" points="10,-10,30,10"/>
        <shape type="line" width="1" color="#0000ff" points="30,10,40,0"/>
        <shape type="line" width="1" color="#0000ff" points="40,0,60,0"/>
        <legend text="1 kOhm" position="-36,20" orientation="0" fontname="Arial" fontsize="12" bold="0" italic="0" color="#229922"/>
        <pin position="60,0" dir="0" length="0" text="1"/>
        <pin position="-60,0" dir="0" length="0" text="2"/>
      </image>
		</component>
    <component type="Rfbt" typeid="57" position="2040,1560" mirrored="0" nodematch="0" macrotype="2" orientation="0">
			<parameter idx="0" encrypted="0">
        <![CDATA[
***********************************
*     Created by WB Importer      *
***********************************
.subckt LM5118_BUCKBOOST_BLOCK_WITH_VCCX_WB_LM5118_BUCKBOOST_BLOCK_WITH_VCCX_Rfbt 1 2
Rfbt 1 2 8660.0

.ends]]>
      </parameter>
			<image>
				<label text="Rfbt" position="2010,1536" textroot=" " orientation="0" color=""/>  <hotzone points="-60,-10,60,10"/>
        <shape type="line" width="1" color="#0000ff" points="-60,0,-40,0"/>
        <shape type="line" width="1" color="#0000ff" points="-40,0,-30,-10"/>
        <shape type="line" width="1" color="#0000ff" points="-30,-10,-10,10"/>
        <shape type="line" width="1" color="#0000ff" points="-10,10,10,-10"/>
        <shape type="line" width="1" color="#0000ff" points="10,-10,30,10"/>
        <shape type="line" width="1" color="#0000ff" points="30,10,40,0"/>
        <shape type="line" width="1" color="#0000ff" points="40,0,60,0"/>
        <legend text="8.66 kOhm" position="-36,20" orientation="0" fontname="Arial" fontsize="12" bold="0" italic="0" color="#229922"/>
        <pin position="60,0" dir="0" length="0" text="1"/>
        <pin position="-60,0" dir="0" length="0" text="2"/>
      </image>
		</component>
    <component type="Ruv1" typeid="57" position="800,400" mirrored="0" nodematch="0" macrotype="2" orientation="0">
			<parameter idx="0" encrypted="0">
        <![CDATA[
***********************************
*     Created by WB Importer      *
***********************************
.subckt LM5118_BUCKBOOST_BLOCK_WITH_VCCX_WB_LM5118_BUCKBOOST_BLOCK_WITH_VCCX_Ruv1 1 2
Ruv1 1 2 64900.0

.ends]]>
      </parameter>
			<image>
				<label text="Ruv1" position="818,370" textroot=" " orientation="0" color=""/>  <hotzone points="-10,60,10,-60"/>
        <shape type="line" width="1" color="#0000ff" points="0,60,0,40"/>
        <shape type="line" width="1" color="#0000ff" points="0,40,-10,30"/>
        <shape type="line" width="1" color="#0000ff" points="-10,30,10,10"/>
        <shape type="line" width="1" color="#0000ff" points="10,10,-10,-10"/>
        <shape type="line" width="1" color="#0000ff" points="-10,-10,10,-30"/>
        <shape type="line" width="1" color="#0000ff" points="10,-30,0,-40"/>
        <shape type="line" width="1" color="#0000ff" points="0,-40,0,-60"/>
        <legend text="64.9 kOhm" position="10,-8" orientation="0" fontname="Arial" fontsize="12" bold="0" italic="0" color="#229922"/>
        <pin position="0,-60" dir="0" length="0" text="1"/>
        <pin position="0,60" dir="0" length="0" text="2"/>
      </image>
		</component>
    <component type="Vsw2" typeid="4" position="2750,720" mirrored="0" nodematch="0" macrotype="2" orientation="0">
			<parameter idx="0" encrypted="0">
			</parameter>
			<image>
				<label text="Vsw2" position="2750,690" textroot="Vsw2" orientation="0" color="#228822"/>
			</image>
		</component>
    <component type="Ccomp" typeid="57" position="1640,1160" mirrored="0" nodematch="0" macrotype="2" orientation="0">
			<parameter idx="0" encrypted="0">
        <![CDATA[
***********************************
*     Created by WB Importer      *
***********************************
.subckt LM5118_BUCKBOOST_BLOCK_WITH_VCCX_WB_LM5118_BUCKBOOST_BLOCK_WITH_VCCX_Ccomp 1 2
Ccomp 1 2 1.8E-10

.ends]]>
      </parameter>
			<image>
				<label text="Ccomp" position="1646,1138" textroot=" " orientation="0" color=""/>  <hotzone points="-24,60,24,-60"/>
        <shape type="line" width="Hair" color="#0000ff" points="0,-60,0,-40"/>
        <shape type="line" width="Hair" color="#0000ff" points="0,60,0,40"/>
        <shape type="line" width="1" color="#0000ff" points="24,-6,-24,-6"/>
        <shape type="line" width="1" color="#0000ff" points="0,40,0,6"/>
        <shape type="line" width="1" color="#0000ff" points="0,-6,0,-40"/>
        <shape type="line" width="1" color="#0000ff" points="24,6,-24,6"/>
        <legend text="0.18 nF" position="8,18" orientation="0" fontname="Arial" fontsize="12" bold="0" italic="0" color="#229922"/>
        <legend text="" position="8,32" orientation="0" fontname="Arial" fontsize="12" bold="0" italic="0" color="#229922"/>
        <legend text="" position="8,48" orientation="0" fontname="Arial" fontsize="12" bold="0" italic="0" color="#229922"/>
        <pin position="0,-60" dir="0" length="0" text="1"/>
        <pin position="0,60" dir="0" length="0" text="2"/>
      </image>
		</component>
    <component type="Cinx" typeid="57" position="1360,400" mirrored="0" nodematch="0" macrotype="2" orientation="0">
			<parameter idx="0" encrypted="0">
        <![CDATA[
***********************************
*     Created by WB Importer      *
***********************************
.subckt LM5118_BUCKBOOST_BLOCK_WITH_VCCX_WB_LM5118_BUCKBOOST_BLOCK_WITH_VCCX_Cinx 1 2
Cinx 1 2 1.0E-7

.ends]]>
      </parameter>
			<image>
				<label text="Cinx" position="1366,378" textroot=" " orientation="0" color=""/>  <hotzone points="-24,60,24,-60"/>
        <shape type="line" width="Hair" color="#0000ff" points="0,-60,0,-40"/>
        <shape type="line" width="Hair" color="#0000ff" points="0,60,0,40"/>
        <shape type="line" width="1" color="#0000ff" points="24,-6,-24,-6"/>
        <shape type="line" width="1" color="#0000ff" points="0,40,0,6"/>
        <shape type="line" width="1" color="#0000ff" points="0,-6,0,-40"/>
        <shape type="line" width="1" color="#0000ff" points="24,6,-24,6"/>
        <legend text="100 nF" position="8,18" orientation="0" fontname="Arial" fontsize="12" bold="0" italic="0" color="#229922"/>
        <legend text="20.726 mOhm" position="8,32" orientation="0" fontname="Arial" fontsize="12" bold="0" italic="0" color="#229922"/>
        <legend text="" position="8,48" orientation="0" fontname="Arial" fontsize="12" bold="0" italic="0" color="#229922"/>
        <pin position="0,-60" dir="0" length="0" text="1"/>
        <pin position="0,60" dir="0" length="0" text="2"/>
      </image>
		</component>
    <component type="Cvccx" typeid="57" position="3090,410" mirrored="0" nodematch="0" macrotype="2" orientation="0">
			<parameter idx="0" encrypted="0">
        <![CDATA[
***********************************
*     Created by WB Importer      *
***********************************
.subckt LM5118_BUCKBOOST_BLOCK_WITH_VCCX_WB_LM5118_BUCKBOOST_BLOCK_WITH_VCCX_Cvccx 1 2
Cvccx 1 2 1.0E-6

.ends]]>
      </parameter>
			<image>
				<label text="Cvccx" position="3096,388" textroot=" " orientation="0" color=""/>  <hotzone points="24,-60,-24,60"/>
        <shape type="line" width="Hair" color="#0000ff" points="0,60,0,40"/>
        <shape type="line" width="Hair" color="#0000ff" points="0,-60,0,-40"/>
        <shape type="line" width="1" color="#0000ff" points="-24,6,24,6"/>
        <shape type="line" width="1" color="#0000ff" points="0,-40,0,-6"/>
        <shape type="line" width="1" color="#0000ff" points="0,6,0,40"/>
        <shape type="line" width="1" color="#0000ff" points="-24,-6,24,-6"/>
        <legend text="1 uF" position="8,18" orientation="0" fontname="Arial" fontsize="12" bold="0" italic="0" color="#229922"/>
        <legend text="1 mOhm" position="8,32" orientation="0" fontname="Arial" fontsize="12" bold="0" italic="0" color="#229922"/>
        <legend text="" position="8,48" orientation="0" fontname="Arial" fontsize="12" bold="0" italic="0" color="#229922"/>
        <pin position="0,60" dir="0" length="0" text="1"/>
        <pin position="0,-60" dir="0" length="0" text="2"/>
      </image>
		</component>
    <component type="IOut" typeid="34" position="3610,720" mirrored="0" nodematch="0" macrotype="2" orientation="0">
			<parameter idx="0" encrypted="0">
			</parameter>
			<image>
				<label text="IOut" position="3610,720" textroot=" " orientation="0" color=""/>  <hotzone points="-30,-6,30,6"/>
        <shape type="line" width="Hair" color="#0000ff" points="-30,0,30,0"/>
        <shape type="line" width="1" color="#0000ff" points="-6,-4,-6,4"/>
        <shape type="line" width="1" color="#0000ff" points="-6,4,4,0"/>
        <shape type="line" width="1" color="#0000ff" points="4,0,-6,-4"/>
        <pin position="-30,0" dir="0" length="0" text="1"/>
        <pin position="30,0" dir="0" length="0" text="2"/>
      </image>  <parameter idx="0" encrypted="0">
        <![CDATA[***********************************
*     Created by WB Importer      *
***********************************
.SUBCKT IOut 1 2 
V_Iprobe 1 2 0.0
.ENDS
]]>
      </parameter>
      <parameter idx="1" name="VALUE" value="0"/>
    </component>
    <component type="Icout" typeid="34" position="3450,850" mirrored="0" nodematch="0" macrotype="2" orientation="0">
			<parameter idx="0" encrypted="0">
			</parameter>
			<image>
				<label text="Icout" position="3450,850" textroot=" " orientation="0" color=""/>  <hotzone points="6,-30,-6,30"/>
        <shape type="line" width="Hair" color="#0000ff" points="0,-30,0,30"/>
        <shape type="line" width="1" color="#0000ff" points="4,-6,-4,-6"/>
        <shape type="line" width="1" color="#0000ff" points="-4,-6,0,4"/>
        <shape type="line" width="1" color="#0000ff" points="0,4,4,-6"/>
        <pin position="0,-30" dir="0" length="0" text="1"/>
        <pin position="0,30" dir="0" length="0" text="2"/>
      </image>  <parameter idx="0" encrypted="0">
        <![CDATA[***********************************
*     Created by WB Importer      *
***********************************
.SUBCKT Icout 1 2 
V_Iprobe 1 2 0.0
.ENDS
]]>
      </parameter>
      <parameter idx="1" name="VALUE" value="0"/>
    </component>
    <component type="M2" typeid="57" position="2810,960" mirrored="0" nodematch="0" macrotype="2" orientation="0">
			<parameter idx="0" encrypted="0">
        <![CDATA[*****************************************************************************
** LM5118_BUCKBOOST_BLOCK_WITH_VCCX.M2.WB_POWER_N_MOSFET Spice Model
*****************************************************************************
** (C) Copyright 2018 Texas Instruments Incorporated. All rights reserved.
** This model is designed as an aid for customers of Texas Instruments.
** TI and its licensors and suppliers make no warranties, either expressed
** or implied, with respect to this model, including the warranties of
** merchantability or fitness for a particular purpose. The model is
** provided solely on an "as is" basis. The entire risk as to its quality
** and performance is with the customer
*****************************************************************************
*****************************************************************************

.SUBCKT LM5118_BUCKBOOST_BLOCK_WITH_VCCX_M2_WB_POWER_N_MOSFET_ENCR drain gate source
.include pspice://../LM5118_BUCKBOOST_BLOCK_WITH_VCCX.M2.WB_POWER_N_MOSFET.enl
XCALL drain gate source LM5118_BUCKBOOST_BLOCK_WITH_VCCX_M2_WB_POWER_N_MOSFET 
.ENDS
]]>
      </parameter>
			<image>
				<label text="M2" position="2780,880" textroot=" " orientation="0" color=""/>  <hotzone points="-30,-60,30,60"/>
        <shape type="line" width="Hair" color="#0000ff" points="-30,0,-10,0"/>
        <shape type="line" width="Hair" color="#0000ff" points="30,-60,30,-40"/>
        <shape type="line" width="Hair" color="#0000ff" points="30,60,30,40"/>
        <shape type="line" width="1" color="#0000ff" points="8,-20,8,20"/>
        <shape type="line" width="1" color="#0000ff" points="30,-20,30,-16"/>
        <shape type="line" width="1" color="#0000ff" points="30,-16,10,-16"/>
        <shape type="line" width="1" color="#0000ff" points="22,0,30,0"/>
        <shape type="line" width="1" color="#0000ff" points="30,0,30,20"/>
        <shape type="line" width="1" color="#0000ff" points="10,16,28,16"/>
        <shape type="line" width="1" color="#0000ff" points="30,-20,30,-16"/>
        <shape type="line" width="1" color="#0000ff" points="30,-16,8,-16"/>
        <shape type="line" width="1" color="#0000ff" points="8,-20,8,20"/>
        <shape type="line" width="1" color="#0000ff" points="8,16,30,16"/>
        <shape type="line" width="1" color="#0000ff" points="8,0,18,-10"/>
        <shape type="line" width="1" color="#0000ff" points="18,-10,18,10"/>
        <shape type="line" width="1" color="#0000ff" points="18,10,8,0"/>
        <shape type="line" width="1" color="#0000ff" points="18,0,30,0"/>
        <shape type="line" width="1" color="#0000ff" points="30,0,30,20"/>
        <shape type="line" width="1" color="#0000ff" points="-10,0,0,0"/>
        <shape type="line" width="1" color="#0000ff" points="0,20,0,-20"/>
        <shape type="line" width="1" color="#0000ff" points="30,-40,30,-20"/>
        <shape type="line" width="1" color="#0000ff" points="30,20,30,40"/>
        <pin position="30,-60" dir="0" length="0" text="drain"/>
        <pin position="-30,0" dir="0" length="0" text="gate"/>
        <pin position="30,60" dir="0" length="0" text="source"/>
      </image>
		</component>
    <component type="Rcomp" typeid="57" position="1500,1100" mirrored="0" nodematch="0" macrotype="2" orientation="0">
			<parameter idx="0" encrypted="0">
        <![CDATA[
***********************************
*     Created by WB Importer      *
***********************************
.subckt LM5118_BUCKBOOST_BLOCK_WITH_VCCX_WB_LM5118_BUCKBOOST_BLOCK_WITH_VCCX_Rcomp 1 2
Rcomp 1 2 56200.0

.ends]]>
      </parameter>
			<image>
				<label text="Rcomp" position="1518,1070" textroot=" " orientation="0" color=""/>  <hotzone points="-10,60,10,-60"/>
        <shape type="line" width="1" color="#0000ff" points="0,60,0,40"/>
        <shape type="line" width="1" color="#0000ff" points="0,40,-10,30"/>
        <shape type="line" width="1" color="#0000ff" points="-10,30,10,10"/>
        <shape type="line" width="1" color="#0000ff" points="10,10,-10,-10"/>
        <shape type="line" width="1" color="#0000ff" points="-10,-10,10,-30"/>
        <shape type="line" width="1" color="#0000ff" points="10,-30,0,-40"/>
        <shape type="line" width="1" color="#0000ff" points="0,-40,0,-60"/>
        <legend text="56.2 kOhm" position="10,-8" orientation="0" fontname="Arial" fontsize="12" bold="0" italic="0" color="#229922"/>
        <pin position="0,-60" dir="0" length="0" text="1"/>
        <pin position="0,60" dir="0" length="0" text="2"/>
      </image>
		</component>
    <component type="Renable" typeid="57" position="940,540" mirrored="0" nodematch="0" macrotype="2" orientation="0">
			<parameter idx="0" encrypted="0">
        <![CDATA[
***********************************
*     Created by WB Importer      *
***********************************
.subckt LM5118_BUCKBOOST_BLOCK_WITH_VCCX_WB_LM5118_BUCKBOOST_BLOCK_WITH_VCCX_Renable 1 2
Renable 1 2 1020000.0

.ends]]>
      </parameter>
			<image>
				<label text="Renable" position="958,510" textroot=" " orientation="0" color=""/>  <hotzone points="-10,60,10,-60"/>
        <shape type="line" width="1" color="#0000ff" points="0,60,0,40"/>
        <shape type="line" width="1" color="#0000ff" points="0,40,-10,30"/>
        <shape type="line" width="1" color="#0000ff" points="-10,30,10,10"/>
        <shape type="line" width="1" color="#0000ff" points="10,10,-10,-10"/>
        <shape type="line" width="1" color="#0000ff" points="-10,-10,10,-30"/>
        <shape type="line" width="1" color="#0000ff" points="10,-30,0,-40"/>