<?xml version="1.0" encoding="iso-8859-1"?>
<!--
<ReadMe>

This XML can be imported in Altium Designer 14 using WEBENCH Altium Connector Extension and simulated using WEBENCH Simulation Engine.
The WEBENCH Altium Connector provides an interface to the Texas Instruments WEBENCH Designer Tools as well as to open WEBENCH exported Designs directly from inside Altium Designer.
It also includes the advanced WEBENCH Simulation Engine which can be used for offline circuit simulations.
You will need a activation key from TI to be able to use the WEBENCH Simulation Engine.

Installation guide:
http://www.ti.com/lit/SNVU481
You can download the WEBENCH extension from Altium Designer 14 Extensions.

Connector Details:
http://www.ti.com/lsds/ti/analog/webench/altiumconnector.page

More about WEBENCH simulation export to Altium:
http://www.ti.com/lsds/ti/analog/webench/simexportaltium.page

User Manual:
http://www.ti.com/lit/szzu007

</ReadMe>
-->
<schematic>
  <circuit>
    <text id="T_123456" position="400,-148" fontname="Times New Roman" fontsize="27" bold="0" color="#294901">
      <![CDATA[LM5116 Startup Simulation
(Exported from WEBENCH® Designer)]]>
    </text>
    <text id="T_123456" position="945,-148" fontname="Arial" fontsize="13" bold="1" italic="1" color="#278190" border="1">
      <![CDATA[Title :    LM5116MHX/NOPB 40V-80V to 12.00V @ 12A
-------------------------------------------------------------------------
WEBENCH® Design ID                  :       5
Date of WEBENCH® Export           :       17-Jan-2019
Time of WEBENCH® Export          :       6:18:18 AM
WEBENCH® Export Tool Version :       E1.67-X2.27]]>
    </text>
    <component type="Cboot" typeid="57" position="2130,800" mirrored="0" nodematch="0" macrotype="2" orientation="0">
			<parameter idx="0" encrypted="0">
        <![CDATA[
***********************************
*     Created by WB Importer      *
***********************************
.subckt LM5116_BUCK_BLOCK_WB_LM5116_BUCK_BLOCK_WITH_RRAMP_Cboot 1 2
Cboot 1 2 4.7E-7

.ends]]>
      </parameter>
			<image>
				<label text="Cboot" position="2136,778" textroot=" " orientation="0" color=""/>  <hotzone points="-24,60,24,-60"/>
        <shape type="line" width="Hair" color="#0000ff" points="0,-60,0,-40"/>
        <shape type="line" width="Hair" color="#0000ff" points="0,60,0,40"/>
        <shape type="line" width="1" color="#0000ff" points="24,-6,-24,-6"/>
        <shape type="line" width="1" color="#0000ff" points="0,40,0,6"/>
        <shape type="line" width="1" color="#0000ff" points="0,-6,0,-40"/>
        <shape type="line" width="1" color="#0000ff" points="24,6,-24,6"/>
        <legend text="0.47 uF" position="8,18" orientation="0" fontname="Arial" fontsize="12" bold="0" italic="0" color="#229922"/>
        <legend text="" position="8,32" orientation="0" fontname="Arial" fontsize="12" bold="0" italic="0" color="#229922"/>
        <legend text="" position="8,48" orientation="0" fontname="Arial" fontsize="12" bold="0" italic="0" color="#229922"/>
        <pin position="0,-60" dir="0" length="0" text="1"/>
        <pin position="0,60" dir="0" length="0" text="2"/>
      </image>
		</component>
    <component type="Ccomp" typeid="57" position="1770,1340" mirrored="0" nodematch="0" macrotype="2" orientation="0">
			<parameter idx="0" encrypted="0">
        <![CDATA[
***********************************
*     Created by WB Importer      *
***********************************
.subckt LM5116_BUCK_BLOCK_WB_LM5116_BUCK_BLOCK_WITH_RRAMP_Ccomp 1 2
Ccomp 1 2 2.2E-9

.ends]]>
      </parameter>
			<image>
				<label text="Ccomp" position="1780,1322" textroot=" " orientation="0" color=""/>  <hotzone points="60,24,-60,-24"/>
        <shape type="line" width="Hair" color="#0000ff" points="-60,0,-40,0"/>
        <shape type="line" width="Hair" color="#0000ff" points="60,0,40,0"/>
        <shape type="line" width="1" color="#0000ff" points="-6,-24,-6,24"/>
        <shape type="line" width="1" color="#0000ff" points="40,0,6,0"/>
        <shape type="line" width="1" color="#0000ff" points="-6,0,-40,0"/>
        <shape type="line" width="1" color="#0000ff" points="6,-24,6,24"/>
        <legend text="2.2 nF" position="18,10" orientation="0" fontname="Arial" fontsize="12" bold="0" italic="0" color="#229922"/>
        <legend text="" position="18,26" orientation="0" fontname="Arial" fontsize="12" bold="0" italic="0" color="#229922"/>
        <legend text="" position="18,40" orientation="0" fontname="Arial" fontsize="12" bold="0" italic="0" color="#229922"/>
        <pin position="-60,0" dir="0" length="0" text="1"/>
        <pin position="60,0" dir="0" length="0" text="2"/>
      </image>
		</component>
    <component type="Ccomp2" typeid="57" position="1810,1180" mirrored="0" nodematch="0" macrotype="2" orientation="0">
			<parameter idx="0" encrypted="0">
        <![CDATA[
***********************************
*     Created by WB Importer      *
***********************************
.subckt LM5116_BUCK_BLOCK_WB_LM5116_BUCK_BLOCK_WITH_RRAMP_Ccomp2 1 2
Ccomp2 1 2 2.2E-10

.ends]]>
      </parameter>
			<image>
				<label text="Ccomp2" position="1820,1162" textroot=" " orientation="0" color=""/>  <hotzone points="60,24,-60,-24"/>
        <shape type="line" width="Hair" color="#0000ff" points="-60,0,-40,0"/>
        <shape type="line" width="Hair" color="#0000ff" points="60,0,40,0"/>
        <shape type="line" width="1" color="#0000ff" points="-6,-24,-6,24"/>
        <shape type="line" width="1" color="#0000ff" points="40,0,6,0"/>
        <shape type="line" width="1" color="#0000ff" points="-6,0,-40,0"/>
        <shape type="line" width="1" color="#0000ff" points="6,-24,6,24"/>
        <legend text="0.22 nF" position="18,10" orientation="0" fontname="Arial" fontsize="12" bold="0" italic="0" color="#229922"/>
        <legend text="" position="18,26" orientation="0" fontname="Arial" fontsize="12" bold="0" italic="0" color="#229922"/>
        <legend text="" position="18,40" orientation="0" fontname="Arial" fontsize="12" bold="0" italic="0" color="#229922"/>
        <pin position="-60,0" dir="0" length="0" text="1"/>
        <pin position="60,0" dir="0" length="0" text="2"/>
      </image>
		</component>
    <component type="Cin" typeid="57" position="710,820" mirrored="0" nodematch="0" macrotype="2" orientation="0">
			<parameter idx="0" encrypted="0">
        <![CDATA[
***********************************
*     Created by WB Importer      *
***********************************
.SUBCKT LM5116_BUCK_BLOCK_Cin_WB_CAP_POLARIZED 1 2
Ccap 1 3 4.5E-5
Resr 3 2 0.013333333333333334
.ENDS]]>
      </parameter>
			<image>
				<label text="Cin" position="716,798" textroot=" " orientation="0" color=""/>  <hotzone points="-24,60,24,-60"/>
        <shape type="line" width="Hair" color="#0000ff" points="0,-60,0,-40"/>
        <shape type="line" width="Hair" color="#0000ff" points="0,60,0,40"/>
        <shape type="line" width="1" color="#0000ff" points="24,-6,-24,-6"/>
        <shape type="line" width="1" color="#0000ff" points="0,40,0,6"/>
        <shape type="line" width="1" color="#0000ff" points="0,-6,0,-40"/>
        <shape type="line" width="1" color="#0000ff" points="24,6,-24,6"/>
        <legend text="15 uF" position="8,18" orientation="0" fontname="Arial" fontsize="12" bold="0" italic="0" color="#229922"/>
        <legend text="40 mOhm" position="8,32" orientation="0" fontname="Arial" fontsize="12" bold="0" italic="0" color="#229922"/>
        <legend text="qty=3" position="8,48" orientation="0" fontname="Arial" fontsize="12" bold="0" italic="0" color="#229922"/>
        <pin position="0,-60" dir="0" length="0" text="1"/>
        <pin position="0,60" dir="0" length="0" text="2"/>
      </image>
		</component>
    <component type="Cinx" typeid="57" position="810,820" mirrored="0" nodematch="0" macrotype="2" orientation="0">
			<parameter idx="0" encrypted="0">
        <![CDATA[
***********************************
*     Created by WB Importer      *
***********************************
.subckt LM5116_BUCK_BLOCK_WB_LM5116_BUCK_BLOCK_WITH_RRAMP_Cinx 1 2
Cinx 1 2 1.0E-7

.ends]]>
      </parameter>
			<image>
				<label text="Cinx" position="816,798" textroot=" " orientation="0" color=""/>  <hotzone points="-24,60,24,-60"/>
        <shape type="line" width="Hair" color="#0000ff" points="0,-60,0,-40"/>
        <shape type="line" width="Hair" color="#0000ff" points="0,60,0,40"/>
        <shape type="line" width="1" color="#0000ff" points="24,-6,-24,-6"/>
        <shape type="line" width="1" color="#0000ff" points="0,40,0,6"/>
        <shape type="line" width="1" color="#0000ff" points="0,-6,0,-40"/>
        <shape type="line" width="1" color="#0000ff" points="24,6,-24,6"/>
        <legend text="100 nF" position="8,18" orientation="0" fontname="Arial" fontsize="12" bold="0" italic="0" color="#229922"/>
        <legend text="1 mOhm" position="8,32" orientation="0" fontname="Arial" fontsize="12" bold="0" italic="0" color="#229922"/>
        <legend text="" position="8,48" orientation="0" fontname="Arial" fontsize="12" bold="0" italic="0" color="#229922"/>
        <pin position="0,-60" dir="0" length="0" text="1"/>
        <pin position="0,60" dir="0" length="0" text="2"/>
      </image>
		</component>
    <component type="Cout" typeid="57" position="2830,1020" mirrored="0" nodematch="0" macrotype="2" orientation="0">
			<parameter idx="0" encrypted="0">
        <![CDATA[
***********************************
*     Created by WB Importer      *
***********************************
.SUBCKT LM5116_BUCK_BLOCK_Cout_WB_CAP_TANTALUM 13 2
C3 13 11 5.0322675E-5 IC=0.0
C4 13 3 2.51613375E-5 IC=0.0
C5 13 4 1.258066875E-5 IC=0.0
R1 4 5 0.0175
R2 3 6 0.0126
R3 11 7 0.0245
R4 12 8 0.032479999999999995
C6 13 9 2.012907E-4 IC=0.0
R5 13 0 1000000.0
R6 9 10 0.08750000000000001
L1 5 2 8.0E-9
L2 6 2 8.0E-9
L3 7 2 8.0E-9
L4 8 2 8.0E-9
L5 10 2 8.0E-9
R8 2 0 1000000.0
C2 13 12 1.0064535E-4 IC=0.0
.ENDS]]>
      </parameter>
			<image>
				<label text="Cout" position="2836,998" textroot=" " orientation="0" color=""/>  <hotzone points="-24,60,24,-60"/>
        <shape type="line" width="Hair" color="#0000ff" points="0,-60,0,-40"/>
        <shape type="line" width="Hair" color="#0000ff" points="0,60,0,40"/>
        <shape type="line" width="1" color="#0000ff" points="24,-6,-24,-6"/>
        <shape type="line" width="1" color="#0000ff" points="0,40,0,6"/>
        <shape type="line" width="1" color="#0000ff" points="0,-6,0,-40"/>
        <shape type="line" width="1" color="#0000ff" points="24,6,-24,6"/>
        <legend text="0.39 mF" position="8,18" orientation="0" fontname="Arial" fontsize="12" bold="0" italic="0" color="#229922"/>
        <legend text="14 mOhm" position="8,32" orientation="0" fontname="Arial" fontsize="12" bold="0" italic="0" color="#229922"/>
        <legend text="" position="8,48" orientation="0" fontname="Arial" fontsize="12" bold="0" italic="0" color="#229922"/>
        <pin position="0,-60" dir="0" length="0" text="13"/>
        <pin position="0,60" dir="0" length="0" text="2"/>
      </image>
		</component>
    <component type="Cramp" typeid="57" position="1330,1240" mirrored="0" nodematch="0" macrotype="2" orientation="0">
			<parameter idx="0" encrypted="0">
        <![CDATA[
***********************************
*     Created by WB Importer      *
***********************************
.subckt LM5116_BUCK_BLOCK_WB_LM5116_BUCK_BLOCK_WITH_RRAMP_Cramp 1 2
Cramp 1 2 1.0E-9

.ends]]>
      </parameter>
			<image>
				<label text="Cramp" position="1336,1218" textroot=" " orientation="0" color=""/>  <hotzone points="-24,60,24,-60"/>
        <shape type="line" width="Hair" color="#0000ff" points="0,-60,0,-40"/>
        <shape type="line" width="Hair" color="#0000ff" points="0,60,0,40"/>
        <shape type="line" width="1" color="#0000ff" points="24,-6,-24,-6"/>
        <shape type="line" width="1" color="#0000ff" points="0,40,0,6"/>
        <shape type="line" width="1" color="#0000ff" points="0,-6,0,-40"/>
        <shape type="line" width="1" color="#0000ff" points="24,6,-24,6"/>
        <legend text="1 nF" position="8,18" orientation="0" fontname="Arial" fontsize="12" bold="0" italic="0" color="#229922"/>
        <legend text="" position="8,32" orientation="0" fontname="Arial" fontsize="12" bold="0" italic="0" color="#229922"/>
        <legend text="" position="8,48" orientation="0" fontname="Arial" fontsize="12" bold="0" italic="0" color="#229922"/>
        <pin position="0,-60" dir="0" length="0" text="1"/>
        <pin position="0,60" dir="0" length="0" text="2"/>
      </image>
		</component>
    <component type="Css" typeid="57" position="1510,1240" mirrored="0" nodematch="0" macrotype="2" orientation="0">
			<parameter idx="0" encrypted="0">
        <![CDATA[
***********************************
*     Created by WB Importer      *
***********************************
.subckt LM5116_BUCK_BLOCK_WB_LM5116_BUCK_BLOCK_WITH_RRAMP_Css 1 2
Css 1 2 1.5E-8

.ends]]>
      </parameter>
			<image>
				<label text="Css" position="1516,1218" textroot=" " orientation="0" color=""/>  <hotzone points="-24,60,24,-60"/>
        <shape type="line" width="Hair" color="#0000ff" points="0,-60,0,-40"/>
        <shape type="line" width="Hair" color="#0000ff" points="0,60,0,40"/>
        <shape type="line" width="1" color="#0000ff" points="24,-6,-24,-6"/>
        <shape type="line" width="1" color="#0000ff" points="0,40,0,6"/>
        <shape type="line" width="1" color="#0000ff" points="0,-6,0,-40"/>
        <shape type="line" width="1" color="#0000ff" points="24,6,-24,6"/>
        <legend text="15 nF" position="8,18" orientation="0" fontname="Arial" fontsize="12" bold="0" italic="0" color="#229922"/>
        <legend text="" position="8,32" orientation="0" fontname="Arial" fontsize="12" bold="0" italic="0" color="#229922"/>
        <legend text="" position="8,48" orientation="0" fontname="Arial" fontsize="12" bold="0" italic="0" color="#229922"/>
        <pin position="0,-60" dir="0" length="0" text="1"/>
        <pin position="0,60" dir="0" length="0" text="2"/>
      </image>
		</component>
    <component type="Cvcc" typeid="57" position="2270,640" mirrored="0" nodematch="0" macrotype="2" orientation="0">
			<parameter idx="0" encrypted="0">
        <![CDATA[
***********************************
*     Created by WB Importer      *
***********************************
.subckt LM5116_BUCK_BLOCK_WB_LM5116_BUCK_BLOCK_WITH_RRAMP_Cvcc 1 2
Cvcc 1 2 1.0E-6

.ends]]>
      </parameter>
			<image>
				<label text="Cvcc" position="2276,618" textroot=" " orientation="0" color=""/>  <hotzone points="-24,60,24,-60"/>
        <shape type="line" width="Hair" color="#0000ff" points="0,-60,0,-40"/>
        <shape type="line" width="Hair" color="#0000ff" points="0,60,0,40"/>
        <shape type="line" width="1" color="#0000ff" points="24,-6,-24,-6"/>
        <shape type="line" width="1" color="#0000ff" points="0,40,0,6"/>
        <shape type="line" width="1" color="#0000ff" points="0,-6,0,-40"/>
        <shape type="line" width="1" color="#0000ff" points="24,6,-24,6"/>
        <legend text="1 uF" position="8,18" orientation="0" fontname="Arial" fontsize="12" bold="0" italic="0" color="#229922"/>
        <legend text="1 mOhm" position="8,32" orientation="0" fontname="Arial" fontsize="12" bold="0" italic="0" color="#229922"/>
        <legend text="" position="8,48" orientation="0" fontname="Arial" fontsize="12" bold="0" italic="0" color="#229922"/>
        <pin position="0,-60" dir="0" length="0" text="1"/>
        <pin position="0,60" dir="0" length="0" text="2"/>
      </image>
		</component>
    <component type="D1" typeid="57" position="2130,640" mirrored="0" nodematch="0" macrotype="2" orientation="0">
			<parameter idx="0" encrypted="0">
        <![CDATA[*****************************************************************************
** LM5116_BUCK_BLOCK.WB_LM5116_BUCK_BLOCK_WITH_RRAMP.D1 Spice Model
*****************************************************************************
** (C) Copyright 2019 Texas Instruments Incorporated. All rights reserved.
** This model is designed as an aid for customers of Texas Instruments.
** TI and its licensors and suppliers make no warranties, either expressed
** or implied, with respect to this model, including the warranties of
** merchantability or fitness for a particular purpose. The model is
** provided solely on an "as is" basis. The entire risk as to its quality
** and performance is with the customer
*****************************************************************************
*****************************************************************************

.subckt LM5116_BUCK_BLOCK_WB_LM5116_BUCK_BLOCK_WITH_RRAMP_D1_ENCR A K
.include isspice://../LM5116_BUCK_BLOCK.WB_LM5116_BUCK_BLOCK_WITH_RRAMP.D1.enl
XCALL A K LM5116_BUCK_BLOCK_WB_LM5116_BUCK_BLOCK_WITH_RRAMP_D1 
.ENDS
]]>
      </parameter>
			<image>
				<label text="D1" position="2160,622" textroot=" " orientation="0" color=""/>  <hotzone points="-20,60,20,-60"/>
        <shape type="line" width="Hair" color="#0000ff" points="0,-20,0,-60"/>
        <shape type="line" width="Hair" color="#0000ff" points="0,60,0,20"/>
        <shape type="line" width="1" color="#0000ff" points="-20,20,20,20"/>
        <shape type="polygon" color="#0000ff" width="1" fill="4278222976" points="0,20,-20,-20,20,-20"/>
        <legend text="1 A" position="36,0" orientation="0" fontname="Arial" fontsize="12" bold="0" italic="0" color="#229922"/>
        <legend text="1.2 V" position="36,16" orientation="0" fontname="Arial" fontsize="12" bold="0" italic="0" color="#229922"/>
        <pin position="0,-60" dir="0" length="0" text="A"/>
        <pin position="0,60" dir="0" length="0" text="K"/>
      </image>
		</component>
    <component type="Ground" typeid="2" position="1790,1560" mirrored="0" nodematch="0" macrotype="2" orientation="0">
			<parameter idx="0" encrypted="0">
			</parameter>
			<image>
				<label text="GND1" position="1790,1560" textroot="GND1" orientation="0" color="#228822"/>
			</image>
		</component>
    <component type="Ground" typeid="2" position="2270,700" mirrored="0" nodematch="0" macrotype="2" orientation="0">
			<parameter idx="0" encrypted="0">
			</parameter>
			<image>
				<label text="GND1" position="2270,700" textroot="GND1" orientation="0" color="#228822"/>
			</image>
		</component>
    <component type="IIC" typeid="34" position="1530,430" mirrored="0" nodematch="0" macrotype="2" orientation="0">
			<parameter idx="0" encrypted="0">
			</parameter>
			<image>
				<label text="IIC" position="1530,430" textroot=" " orientation="0" color=""/>  <hotzone points="6,-30,-6,30"/>
        <shape type="line" width="Hair" color="#0000ff" points="0,-30,0,30"/>
        <shape type="line" width="1" color="#0000ff" points="4,-6,-4,-6"/>
        <shape type="line" width="1" color="#0000ff" points="-4,-6,0,4"/>
        <shape type="line" width="1" color="#0000ff" points="0,4,4,-6"/>
        <pin position="0,-30" dir="0" length="0" text="1"/>
        <pin position="0,30" dir="0" length="0" text="2"/>
      </image>  <parameter idx="0" encrypted="0">
        <![CDATA[***********************************
*     Created by WB Importer      *
***********************************
.SUBCKT IIC 1 2 
V_Iprobe 1 2 0.0
.ENDS
]]>
      </parameter>
      <parameter idx="1" name="VALUE" value="0"/>
    </component>
    <component type="IIn" typeid="34" position="640,260" mirrored="0" nodematch="0" macrotype="2" orientation="0">
			<parameter idx="0" encrypted="0">
			</parameter>
			<image>
				<label text="IIn" position="640,260" textroot=" " orientation="0" color=""/>  <hotzone points="-30,-6,30,6"/>
        <shape type="line" width="Hair" color="#0000ff" points="-30,0,30,0"/>
        <shape type="line" width="1" color="#0000ff" points="-6,-4,-6,4"/>
        <shape type="line" width="1" color="#0000ff" points="-6,4,4,0"/>
        <shape type="line" width="1" color="#0000ff" points="4,0,-6,-4"/>
        <pin position="-30,0" dir="0" length="0" text="1"/>
        <pin position="30,0" dir="0" length="0" text="2"/>
      </image>  <parameter idx="0" encrypted="0">
        <![CDATA[***********************************
*     Created by WB Importer      *
***********************************
.SUBCKT IIn 1 2 
V_Iprobe 1 2 0.0
.ENDS
]]>
      </parameter>
      <parameter idx="1" name="VALUE" value="0"/>
    </component>
    <component type="Icin" typeid="34" position="710,450" mirrored="0" nodematch="0" macrotype="2" orientation="0">
			<parameter idx="0" encrypted="0">
			</parameter>
			<image>
				<label text="Icin" position="710,450" textroot=" " orientation="0" color=""/>  <hotzone points="6,-30,-6,30"/>
        <shape type="line" width="Hair" color="#0000ff" points="0,-30,0,30"/>
        <shape type="line" width="1" color="#0000ff" points="4,-6,-4,-6"/>
        <shape type="line" width="1" color="#0000ff" points="-4,-6,0,4"/>
        <shape type="line" width="1" color="#0000ff" points="0,4,4,-6"/>
        <pin position="0,-30" dir="0" length="0" text="1"/>
        <pin position="0,30" dir="0" length="0" text="2"/>
      </image>  <parameter idx="0" encrypted="0">
        <![CDATA[***********************************
*     Created by WB Importer      *
***********************************
.SUBCKT Icin 1 2 
V_Iprobe 1 2 0.0
.ENDS
]]>
      </parameter>
      <parameter idx="1" name="VALUE" value="0"/>
    </component>
    <component type="Icout" typeid="34" position="2830,930" mirrored="0" nodematch="0" macrotype="2" orientation="0">
			<parameter idx="0" encrypted="0">
			</parameter>
			<image>
				<label text="Icout" position="2830,930" textroot=" " orientation="0" color=""/>  <hotzone points="6,-30,-6,30"/>
        <shape type="line" width="Hair" color="#0000ff" points="0,-30,0,30"/>
        <shape type="line" width="1" color="#0000ff" points="4,-6,-4,-6"/>
        <shape type="line" width="1" color="#0000ff" points="-4,-6,0,4"/>
        <shape type="line" width="1" color="#0000ff" points="0,4,4,-6"/>
        <pin position="0,-30" dir="0" length="0" text="1"/>
        <pin position="0,30" dir="0" length="0" text="2"/>
      </image>  <parameter idx="0" encrypted="0">
        <![CDATA[***********************************
*     Created by WB Importer      *
***********************************
.SUBCKT Icout 1 2 
V_Iprobe 1 2 0.0
.ENDS
]]>
      </parameter>
      <parameter idx="1" name="VALUE" value="0"/>
    </component>
    <component type="Iinductor" typeid="34" position="2460,740" mirrored="0" nodematch="0" macrotype="2" orientation="0">
			<parameter idx="0" encrypted="0">
			</parameter>
			<image>
				<label text="Iinductor" position="2460,740" textroot=" " orientation="0" color=""/>  <hotzone points="-30,-6,30,6"/>
        <shape type="line" width="Hair" color="#0000ff" points="-30,0,30,0"/>
        <shape type="line" width="1" color="#0000ff" points="-6,-4,-6,4"/>
        <shape type="line" width="1" color="#0000ff" points="-6,4,4,0"/>
        <shape type="line" width="1" color="#0000ff" points="4,0,-6,-4"/>
        <pin position="-30,0" dir="0" length="0" text="1"/>
        <pin position="30,0" dir="0" length="0" text="2"/>
      </image>  <parameter idx="0" encrypted="0">
        <![CDATA[***********************************
*     Created by WB Importer      *
***********************************
.SUBCKT Iinductor 1 2 
V_Iprobe 1 2 0.0
.ENDS
]]>
      </parameter>
      <parameter idx="1" name="VALUE" value="0"/>
    </component>
    <component type="Iout" typeid="34" position="2920,740" mirrored="0" nodematch="0" macrotype="2" orientation="0">
			<parameter idx="0" encrypted="0">
			</parameter>
			<image>
				<label text="Iout" position="2920,740" textroot=" " orientation="0" color=""/>  <hotzone points="-30,-6,30,6"/>
        <shape type="line" width="Hair" color="#0000ff" points="-30,0,30,0"/>
        <shape type="line" width="1" color="#0000ff" points="-6,-4,-6,4"/>
        <shape type="line" width="1" color="#0000ff" points="-6,4,4,0"/>
        <shape type="line" width="1" color="#0000ff" points="4,0,-6,-4"/>
        <pin position="-30,0" dir="0" length="0" text="1"/>
        <pin position="30,0" dir="0" length="0" text="2"/>
      </image>  <parameter idx="0" encrypted="0">
        <![CDATA[***********************************
*     Created by WB Importer      *
***********************************
.SUBCKT Iout 1 2 
V_Iprobe 1 2 0.0
.ENDS
]]>
      </parameter>
      <parameter idx="1" name="VALUE" value="0"/>
    </component>
    <component type="L1" typeid="57" position="2550,740" mirrored="0" nodematch="0" macrotype="2" orientation="0">
			<parameter idx="0" encrypted="0">
        <![CDATA[
***********************************
*     Created by WB Importer      *
***********************************
.SUBCKT LM5116_BUCK_BLOCK_L1_WB_INDUCTOR 1 2
L1 2 3 1.5E-5
RDCR 3 1 0.0026
.ENDS]]>
      </parameter>
			<image>
				<label text="L1" position="2516,710" textroot=" " orientation="0" color=""/>  <hotzone points="-60,-10,60,10"/>
        <shape type="line" width="Hair" color="#0000ff" points="40,0,60,0"/>
        <shape type="line" width="Hair" color="#0000ff" points="-40,0,-60,0"/>
        <legend text="15 uH" position="-30,8" orientation="0" fontname="Arial" fontsize="12" bold="0" italic="0" color="#229922"/>
        <legend text="2.6 mOhm" position="-30,22" orientation="0" fontname="Arial" fontsize="12" bold="0" italic="0" color="#229922"/>
        <shape type="arc" color="#0000ff" width="2" points="-40,-10,-20,10,90,90"/>
        <shape type="arc" color="#0000ff" width="2" points="-40,-10,-20,10,0,90"/>
        <shape type="arc" color="#0000ff" width="2" points="-20,-10,0,10,90,90"/>
        <shape type="arc" color="#0000ff" width="2" points="-20,-10,0,10,0,90"/>
        <shape type="arc" color="#0000ff" width="2" points="0,-10,20,10,90,90"/>
        <shape type="arc" color="#0000ff" width="2" points="0,-10,20,10,0,90"/>
        <shape type="arc" color="#0000ff" width="2" points="20,-10,40,10,90,90"/>
        <shape type="arc" color="#0000ff" width="2" points="20,-10,40,10,0,90"/>
        <pin position="-60,0" dir="0" length="0" text="1"/>
        <pin position="60,0" dir="0" length="0" text="2"/>
      </image>
		</component>
    <component type="M1" typeid="57" position="2360,460" mirrored="0" nodematch="0" macrotype="2" orientation="0">
			<parameter idx="0" encrypted="0">
        <![CDATA[*****************************************************************************
** LM5116_BUCK_BLOCK.M1.WB_POWER_N_MOSFET Spice Model
*****************************************************************************
** (C) Copyright 2019 Texas Instruments Incorporated. All rights reserved.
** This model is designed as an aid for customers of Texas Instruments.
** TI and its licensors and suppliers make no warranties, either expressed
** or implied, with respect to this model, including the warranties of
** merchantability or fitness for a particular purpose. The model is
** provided solely on an "as is" basis. The entire risk as to its quality
** and performance is with the customer
*****************************************************************************
*****************************************************************************

.SUBCKT LM5116_BUCK_BLOCK_M1_WB_POWER_N_MOSFET_ENCR drain gate source
.include isspice://../LM5116_BUCK_BLOCK.M1.WB_POWER_N_MOSFET.enl
XCALL drain gate source LM5116_BUCK_BLOCK_M1_WB_POWER_N_MOSFET 
.ENDS
]]>
      </parameter>
			<image>
				<label text="M1" position="2330,380" textroot=" " orientation="0" color=""/>  <hotzone points="-30,-60,30,60"/>
        <shape type="line" width="Hair" color="#0000ff" points="-30,0,-10,0"/>
        <shape type="line" width="Hair" color="#0000ff" points="30,-60,30,-40"/>
        <shape type="line" width="Hair" color="#0000ff" points="30,60,30,40"/>
        <shape type="line" width="1" color="#0000ff" points="8,-20,8,20"/>
        <shape type="line" width="1" color="#0000ff" points="30,-20,30,-16"/>
        <shape type="line" width="1" color="#0000ff" points="30,-16,10,-16"/>
        <shape type="line" width="1" color="#0000ff" points="22,0,30,0"/>
        <shape type="line" width="1" color="#0000ff" points="30,0,30,20"/>
        <shape type="line" width="1" color="#0000ff" points="10,16,28,16"/>
        <shape type="line" width="1" color="#0000ff" points="30,-20,30,-16"/>
        <shape type="line" width="1" color="#0000ff" points="30,-16,8,-16"/>
        <shape type="line" width="1" color="#0000ff" points="8,-20,8,20"/>
        <shape type="line" width="1" color="#0000ff" points="8,16,30,16"/>
        <shape type="line" width="1" color="#0000ff" points="8,0,18,-10"/>
        <shape type="line" width="1" color="#0000ff" points="18,-10,18,10"/>
        <shape type="line" width="1" color="#0000ff" points="18,10,8,0"/>
        <shape type="line" width="1" color="#0000ff" points="18,0,30,0"/>
        <shape type="line" width="1" color="#0000ff" points="30,0,30,20"/>
        <shape type="line" width="1" color="#0000ff" points="-10,0,0,0"/>
        <shape type="line" width="1" color="#0000ff" points="0,20,0,-20"/>
        <shape type="line" width="1" color="#0000ff" points="30,-40,30,-20"/>
        <shape type="line" width="1" color="#0000ff" points="30,20,30,40"/>
        <pin position="30,-60" dir="0" length="0" text="drain"/>
        <pin position="-30,0" dir="0" length="0" text="gate"/>
        <pin position="30,60" dir="0" length="0" text="source"/>
      </image>
		</component>
    <component type="M2" typeid="57" position="2360,920" mirrored="0" nodematch="0" macrotype="2" orientation="0">
			<parameter idx="0" encrypted="0">
        <![CDATA[*****************************************************************************
** LM5116_BUCK_BLOCK.M2.WB_POWER_N_MOSFET Spice Model
*****************************************************************************
** (C) Copyright 2019 Texas Instruments Incorporated. All rights reserved.