<?xml version="1.0" encoding="iso-8859-1"?>
<!--
<ReadMe>

This XML can be imported in Altium Designer 14 using WEBENCH Altium Connector Extension and simulated using WEBENCH Simulation Engine.
The WEBENCH Altium Connector provides an interface to the Texas Instruments WEBENCH Designer Tools as well as to open WEBENCH exported Designs directly from inside Altium Designer.
It also includes the advanced WEBENCH Simulation Engine which can be used for offline circuit simulations.
You will need a activation key from TI to be able to use the WEBENCH Simulation Engine.

Installation guide:
http://www.ti.com/lit/SNVU481
You can download the WEBENCH extension from Altium Designer 14 Extensions.

Connector Details:
http://www.ti.com/lsds/ti/analog/webench/altiumconnector.page

More about WEBENCH simulation export to Altium:
http://www.ti.com/lsds/ti/analog/webench/simexportaltium.page

User Manual:
http://www.ti.com/lit/szzu007

</ReadMe>
-->
<schematic>
  <circuit>
    <text id="T_123456" position="400,-148" fontname="Times New Roman" fontsize="27" bold="0" color="#294901">
      <![CDATA[LM5161 Startup Simulation
(Exported from WEBENCH® Designer)]]>
    </text>
    <text id="T_123456" position="945,-148" fontname="Arial" fontsize="13" bold="1" italic="1" color="#278190" border="1">
      <![CDATA[Title :    LM5161PWPR 40V-80V to 12.00V @ 1A
-------------------------------------------------------------------------
WEBENCH® Design ID                  :       6
Date of WEBENCH® Export           :       21-Jan-2019
Time of WEBENCH® Export          :       2:23:03 AM
WEBENCH® Export Tool Version :       E1.67-X2.27]]>
    </text>
    <component type="Cin" typeid="57" position="760,370" mirrored="0" nodematch="0" macrotype="2" orientation="0">
			<parameter idx="0" encrypted="0">
        <![CDATA[
***********************************
*     Created by WB Importer      *
***********************************
.SUBCKT WB_LM5161_MAIN_BLOCK_Cin_WB_CAP_POLARIZED 1 2
Ccap 1 3 1.0E-6
Resr 3 2 0.007086
.ENDS]]>
      </parameter>
			<image>
				<label text="Cin" position="766,348" textroot=" " orientation="0" color=""/>  <hotzone points="-24,60,24,-60"/>
        <shape type="line" width="Hair" color="#0000ff" points="0,-60,0,-40"/>
        <shape type="line" width="Hair" color="#0000ff" points="0,60,0,40"/>
        <shape type="line" width="1" color="#0000ff" points="24,-6,-24,-6"/>
        <shape type="line" width="1" color="#0000ff" points="0,40,0,6"/>
        <shape type="line" width="1" color="#0000ff" points="0,-6,0,-40"/>
        <shape type="line" width="1" color="#0000ff" points="24,6,-24,6"/>
        <legend text="1 uF" position="8,18" orientation="0" fontname="Arial" fontsize="12" bold="0" italic="0" color="#229922"/>
        <legend text="7.086 mOhm" position="8,32" orientation="0" fontname="Arial" fontsize="12" bold="0" italic="0" color="#229922"/>
        <legend text="" position="8,48" orientation="0" fontname="Arial" fontsize="12" bold="0" italic="0" color="#229922"/>
        <pin position="0,-60" dir="0" length="0" text="1"/>
        <pin position="0,60" dir="0" length="0" text="2"/>
      </image>
		</component>
    <component type="Cinx" typeid="57" position="990,420" mirrored="0" nodematch="0" macrotype="2" orientation="0">
			<parameter idx="0" encrypted="0">
        <![CDATA[
***********************************
*     Created by WB Importer      *
***********************************
.SUBCKT WB_LM5161_MAIN_BLOCK_Cinx_WB_CAP_POLARIZED 1 2
Ccap 1 3 1.0E-6
Resr 3 2 0.007086
.ENDS]]>
      </parameter>
			<image>
				<label text="Cinx" position="996,398" textroot=" " orientation="0" color=""/>  <hotzone points="-24,60,24,-60"/>
        <shape type="line" width="Hair" color="#0000ff" points="0,-60,0,-40"/>
        <shape type="line" width="Hair" color="#0000ff" points="0,60,0,40"/>
        <shape type="line" width="1" color="#0000ff" points="24,-6,-24,-6"/>
        <shape type="line" width="1" color="#0000ff" points="0,40,0,6"/>
        <shape type="line" width="1" color="#0000ff" points="0,-6,0,-40"/>
        <shape type="line" width="1" color="#0000ff" points="24,6,-24,6"/>
        <legend text="1 uF" position="8,18" orientation="0" fontname="Arial" fontsize="12" bold="0" italic="0" color="#229922"/>
        <legend text="7.086 mOhm" position="8,32" orientation="0" fontname="Arial" fontsize="12" bold="0" italic="0" color="#229922"/>
        <legend text="" position="8,48" orientation="0" fontname="Arial" fontsize="12" bold="0" italic="0" color="#229922"/>
        <pin position="0,-60" dir="0" length="0" text="1"/>
        <pin position="0,60" dir="0" length="0" text="2"/>
      </image>
		</component>
    <component type="Cout" typeid="57" position="2980,480" mirrored="0" nodematch="0" macrotype="2" orientation="0">
			<parameter idx="0" encrypted="0">
        <![CDATA[
***********************************
*     Created by WB Importer      *
***********************************
.SUBCKT WB_LM5161_MAIN_BLOCK_Cout_WB_CAP_CERAMIC 2 4
R1 2 3 0.00205
C1 3 4 5.5E-6 IC=0.0
R3 5 4 5
R2 2 4 1.818181818181818E8
R4 3 26 455555.5555555556
R6 3 7 455.5555555555556
C5 7 1 1.6499999999999998E-7 IC=0.0
R7 3 10 45.555555555555564
C6 10 1 1.6499999999999998E-7 IC=0.0
R8 3 13 4.555555555555556
C7 13 1 1.6499999999999998E-7 IC=0.0
C2 26 1 1.6499999999999998E-7 IC=0.0
R9 3 28 45555.55555555556
C3 28 1 1.6499999999999998E-7 IC=0.0
R10 3 29 4555.555555555557
C4 29 1 1.6499999999999998E-7 IC=0.0
L8 1 5 15p
R24 1 5 0.006150000000000001
L12 5 4 1n
.ENDS]]>
      </parameter>
			<image>
				<label text="Cout" position="2986,458" textroot=" " orientation="0" color=""/>  <hotzone points="-24,60,24,-60"/>
        <shape type="line" width="Hair" color="#0000ff" points="0,-60,0,-40"/>
        <shape type="line" width="Hair" color="#0000ff" points="0,60,0,40"/>
        <shape type="line" width="1" color="#0000ff" points="24,-6,-24,-6"/>
        <shape type="line" width="1" color="#0000ff" points="0,40,0,6"/>
        <shape type="line" width="1" color="#0000ff" points="0,-6,0,-40"/>
        <shape type="line" width="1" color="#0000ff" points="24,6,-24,6"/>
        <legend text="22 uF" position="8,18" orientation="0" fontname="Arial" fontsize="12" bold="0" italic="0" color="#229922"/>
        <legend text="2.05 mOhm" position="8,32" orientation="0" fontname="Arial" fontsize="12" bold="0" italic="0" color="#229922"/>
        <legend text="" position="8,48" orientation="0" fontname="Arial" fontsize="12" bold="0" italic="0" color="#229922"/>
        <pin position="0,-60" dir="0" length="0" text="2"/>
        <pin position="0,60" dir="0" length="0" text="4"/>
      </image>
		</component>
    <component type="Css" typeid="57" position="1420,590" mirrored="0" nodematch="0" macrotype="2" orientation="0">
			<parameter idx="0" encrypted="0">
        <![CDATA[
***********************************
*     Created by WB Importer      *
***********************************
.subckt WB_LM5161_MAIN_BLOCK_WB_LM5161_MAIN_BLOCK_Css 1 2
Css 1 2 2.7E-8

.ends]]>
      </parameter>
			<image>
				<label text="Css" position="1426,568" textroot=" " orientation="0" color=""/>  <hotzone points="-24,60,24,-60"/>
        <shape type="line" width="Hair" color="#0000ff" points="0,-60,0,-40"/>
        <shape type="line" width="Hair" color="#0000ff" points="0,60,0,40"/>
        <shape type="line" width="1" color="#0000ff" points="24,-6,-24,-6"/>
        <shape type="line" width="1" color="#0000ff" points="0,40,0,6"/>
        <shape type="line" width="1" color="#0000ff" points="0,-6,0,-40"/>
        <shape type="line" width="1" color="#0000ff" points="24,6,-24,6"/>
        <legend text="27 nF" position="8,18" orientation="0" fontname="Arial" fontsize="12" bold="0" italic="0" color="#229922"/>
        <legend text="1 mOhm" position="8,32" orientation="0" fontname="Arial" fontsize="12" bold="0" italic="0" color="#229922"/>
        <legend text="" position="8,48" orientation="0" fontname="Arial" fontsize="12" bold="0" italic="0" color="#229922"/>
        <pin position="0,-60" dir="0" length="0" text="1"/>
        <pin position="0,60" dir="0" length="0" text="2"/>
      </image>
		</component>
    <component type="Cvcc" typeid="57" position="1960,730" mirrored="0" nodematch="0" macrotype="2" orientation="0">
			<parameter idx="0" encrypted="0">
        <![CDATA[
***********************************
*     Created by WB Importer      *
***********************************
.subckt WB_LM5161_MAIN_BLOCK_WB_LM5161_MAIN_BLOCK_Cvcc 1 2
Cvcc 1 2 1.0E-6

.ends]]>
      </parameter>
			<image>
				<label text="Cvcc" position="1966,708" textroot=" " orientation="0" color=""/>  <hotzone points="24,-60,-24,60"/>
        <shape type="line" width="Hair" color="#0000ff" points="0,60,0,40"/>
        <shape type="line" width="Hair" color="#0000ff" points="0,-60,0,-40"/>
        <shape type="line" width="1" color="#0000ff" points="-24,6,24,6"/>
        <shape type="line" width="1" color="#0000ff" points="0,-40,0,-6"/>
        <shape type="line" width="1" color="#0000ff" points="0,6,0,40"/>
        <shape type="line" width="1" color="#0000ff" points="-24,-6,24,-6"/>
        <legend text="1 uF" position="8,18" orientation="0" fontname="Arial" fontsize="12" bold="0" italic="0" color="#229922"/>
        <legend text="15 mOhm" position="8,32" orientation="0" fontname="Arial" fontsize="12" bold="0" italic="0" color="#229922"/>
        <legend text="" position="8,48" orientation="0" fontname="Arial" fontsize="12" bold="0" italic="0" color="#229922"/>
        <pin position="0,60" dir="0" length="0" text="1"/>
        <pin position="0,-60" dir="0" length="0" text="2"/>
      </image>
		</component>
    <component type="Ground" typeid="2" position="2010,810" mirrored="0" nodematch="0" macrotype="2" orientation="0">
			<parameter idx="0" encrypted="0">
			</parameter>
			<image>
				<label text="GND1" position="2010,810" textroot="GND1" orientation="0" color="#228822"/>
			</image>
		</component>
    <component type="IInductor" typeid="34" position="2430,310" mirrored="0" nodematch="0" macrotype="2" orientation="0">
			<parameter idx="0" encrypted="0">
			</parameter>
			<image>
				<label text="IInductor" position="2430,310" textroot=" " orientation="0" color=""/>  <hotzone points="-30,-6,30,6"/>
        <shape type="line" width="Hair" color="#0000ff" points="-30,0,30,0"/>
        <shape type="line" width="1" color="#0000ff" points="-6,-4,-6,4"/>
        <shape type="line" width="1" color="#0000ff" points="-6,4,4,0"/>
        <shape type="line" width="1" color="#0000ff" points="4,0,-6,-4"/>
        <pin position="-30,0" dir="0" length="0" text="1"/>
        <pin position="30,0" dir="0" length="0" text="2"/>
      </image>  <parameter idx="0" encrypted="0">
        <![CDATA[***********************************
*     Created by WB Importer      *
***********************************
.SUBCKT IInductor 1 2 
V_Iprobe 1 2 0.0
.ENDS
]]>
      </parameter>
      <parameter idx="1" name="VALUE" value="0"/>
    </component>
    <component type="IOut" typeid="34" position="3090,370" mirrored="0" nodematch="0" macrotype="2" orientation="0">
			<parameter idx="0" encrypted="0">
			</parameter>
			<image>
				<label text="IOut" position="3090,370" textroot=" " orientation="0" color=""/>  <hotzone points="-30,-6,30,6"/>
        <shape type="line" width="Hair" color="#0000ff" points="-30,0,30,0"/>
        <shape type="line" width="1" color="#0000ff" points="-6,-4,-6,4"/>
        <shape type="line" width="1" color="#0000ff" points="-6,4,4,0"/>
        <shape type="line" width="1" color="#0000ff" points="4,0,-6,-4"/>
        <pin position="-30,0" dir="0" length="0" text="1"/>
        <pin position="30,0" dir="0" length="0" text="2"/>
      </image>  <parameter idx="0" encrypted="0">
        <![CDATA[***********************************
*     Created by WB Importer      *
***********************************
.SUBCKT IOut 1 2 
V_Iprobe 1 2 0.0
.ENDS
]]>
      </parameter>
      <parameter idx="1" name="VALUE" value="0"/>
    </component>
    <component type="L1" typeid="57" position="2310,310" mirrored="0" nodematch="0" macrotype="2" orientation="0">
			<parameter idx="0" encrypted="0">
        <![CDATA[
***********************************
*     Created by WB Importer      *
***********************************
.SUBCKT WB_LM5161_MAIN_BLOCK_L1_WB_INDUCTOR 1 2
L1 2 3 6.8E-5
RDCR 3 1 0.1917
.ENDS]]>
      </parameter>
			<image>
				<label text="L1" position="2276,280" textroot=" " orientation="0" color=""/>  <hotzone points="-60,-10,60,10"/>
        <shape type="line" width="Hair" color="#0000ff" points="40,0,60,0"/>
        <shape type="line" width="Hair" color="#0000ff" points="-40,0,-60,0"/>
        <legend text="68 uH" position="-30,8" orientation="0" fontname="Arial" fontsize="12" bold="0" italic="0" color="#229922"/>
        <legend text="0.1917 Ohm" position="-30,22" orientation="0" fontname="Arial" fontsize="12" bold="0" italic="0" color="#229922"/>
        <shape type="arc" color="#0000ff" width="2" points="-40,-10,-20,10,90,90"/>
        <shape type="arc" color="#0000ff" width="2" points="-40,-10,-20,10,0,90"/>
        <shape type="arc" color="#0000ff" width="2" points="-20,-10,0,10,90,90"/>
        <shape type="arc" color="#0000ff" width="2" points="-20,-10,0,10,0,90"/>
        <shape type="arc" color="#0000ff" width="2" points="0,-10,20,10,90,90"/>
        <shape type="arc" color="#0000ff" width="2" points="0,-10,20,10,0,90"/>
        <shape type="arc" color="#0000ff" width="2" points="20,-10,40,10,90,90"/>
        <shape type="arc" color="#0000ff" width="2" points="20,-10,40,10,0,90"/>
        <pin position="-60,0" dir="0" length="0" text="1"/>
        <pin position="60,0" dir="0" length="0" text="2"/>
      </image>
		</component>
    <component type="Rfbb" typeid="57" position="2780,720" mirrored="0" nodematch="0" macrotype="2" orientation="0">
			<parameter idx="0" encrypted="0">
        <![CDATA[
***********************************
*     Created by WB Importer      *
***********************************
.subckt WB_LM5161_MAIN_BLOCK_WB_LM5161_MAIN_BLOCK_Rfbb 1 2
Rfbb 1 2 2000.0

.ends]]>
      </parameter>
			<image>
				<label text="Rfbb" position="2798,690" textroot=" " orientation="0" color=""/>  <hotzone points="-10,60,10,-60"/>
        <shape type="line" width="1" color="#0000ff" points="0,60,0,40"/>
        <shape type="line" width="1" color="#0000ff" points="0,40,-10,30"/>
        <shape type="line" width="1" color="#0000ff" points="-10,30,10,10"/>
        <shape type="line" width="1" color="#0000ff" points="10,10,-10,-10"/>
        <shape type="line" width="1" color="#0000ff" points="-10,-10,10,-30"/>
        <shape type="line" width="1" color="#0000ff" points="10,-30,0,-40"/>
        <shape type="line" width="1" color="#0000ff" points="0,-40,0,-60"/>
        <legend text="2 kOhm" position="10,-8" orientation="0" fontname="Arial" fontsize="12" bold="0" italic="0" color="#229922"/>
        <pin position="0,-60" dir="0" length="0" text="1"/>
        <pin position="0,60" dir="0" length="0" text="2"/>
      </image>
		</component>
    <component type="Rfbt" typeid="57" position="2780,430" mirrored="0" nodematch="0" macrotype="2" orientation="0">
			<parameter idx="0" encrypted="0">
        <![CDATA[
***********************************
*     Created by WB Importer      *
***********************************
.subckt WB_LM5161_MAIN_BLOCK_WB_LM5161_MAIN_BLOCK_Rfbt 1 2
Rfbt 1 2 10000.0

.ends]]>
      </parameter>
			<image>
				<label text="Rfbt" position="2798,400" textroot=" " orientation="0" color=""/>  <hotzone points="-10,60,10,-60"/>
        <shape type="line" width="1" color="#0000ff" points="0,60,0,40"/>
        <shape type="line" width="1" color="#0000ff" points="0,40,-10,30"/>
        <shape type="line" width="1" color="#0000ff" points="-10,30,10,10"/>
        <shape type="line" width="1" color="#0000ff" points="10,10,-10,-10"/>
        <shape type="line" width="1" color="#0000ff" points="-10,-10,10,-30"/>
        <shape type="line" width="1" color="#0000ff" points="10,-30,0,-40"/>
        <shape type="line" width="1" color="#0000ff" points="0,-40,0,-60"/>
        <legend text="10 kOhm" position="10,-8" orientation="0" fontname="Arial" fontsize="12" bold="0" italic="0" color="#229922"/>
        <pin position="0,-60" dir="0" length="0" text="1"/>
        <pin position="0,60" dir="0" length="0" text="2"/>
      </image>
		</component>
    <component type="Ron" typeid="57" position="1410,210" mirrored="0" nodematch="0" macrotype="2" orientation="0">
			<parameter idx="0" encrypted="0">
        <![CDATA[
***********************************
*     Created by WB Importer      *
***********************************
.subckt WB_LM5161_MAIN_BLOCK_WB_LM5161_MAIN_BLOCK_Ron 1 2
Ron 1 2 301000.0

.ends]]>
      </parameter>
			<image>
				<label text="Ron" position="1428,180" textroot=" " orientation="0" color=""/>  <hotzone points="10,-60,-10,60"/>
        <shape type="line" width="1" color="#0000ff" points="0,-60,0,-40"/>
        <shape type="line" width="1" color="#0000ff" points="0,-40,10,-30"/>
        <shape type="line" width="1" color="#0000ff" points="10,-30,-10,-10"/>
        <shape type="line" width="1" color="#0000ff" points="-10,-10,10,10"/>
        <shape type="line" width="1" color="#0000ff" points="10,10,-10,30"/>
        <shape type="line" width="1" color="#0000ff" points="-10,30,0,40"/>
        <shape type="line" width="1" color="#0000ff" points="0,40,0,60"/>
        <legend text="0.301 MOhm" position="10,-8" orientation="0" fontname="Arial" fontsize="12" bold="0" italic="0" color="#229922"/>
        <pin position="0,60" dir="0" length="0" text="1"/>
        <pin position="0,-60" dir="0" length="0" text="2"/>
      </image>
		</component>
    <component type="Ruvb" typeid="57" position="1240,560" mirrored="0" nodematch="0" macrotype="2" orientation="0">
			<parameter idx="0" encrypted="0">
        <![CDATA[
***********************************
*     Created by WB Importer      *
***********************************
.subckt WB_LM5161_MAIN_BLOCK_WB_LM5161_MAIN_BLOCK_Ruvb 1 2
Ruvb 1 2 2740.0

.ends]]>
      </parameter>
			<image>
				<label text="Ruvb" position="1258,530" textroot=" " orientation="0" color=""/>  <hotzone points="-10,60,10,-60"/>
        <shape type="line" width="1" color="#0000ff" points="0,60,0,40"/>
        <shape type="line" width="1" color="#0000ff" points="0,40,-10,30"/>
        <shape type="line" width="1" color="#0000ff" points="-10,30,10,10"/>
        <shape type="line" width="1" color="#0000ff" points="10,10,-10,-10"/>
        <shape type="line" width="1" color="#0000ff" points="-10,-10,10,-30"/>
        <shape type="line" width="1" color="#0000ff" points="10,-30,0,-40"/>
        <shape type="line" width="1" color="#0000ff" points="0,-40,0,-60"/>
        <legend text="2.74 kOhm" position="10,-8" orientation="0" fontname="Arial" fontsize="12" bold="0" italic="0" color="#229922"/>
        <pin position="0,-60" dir="0" length="0" text="1"/>
        <pin position="0,60" dir="0" length="0" text="2"/>
      </image>
		</component>
    <component type="Ruvt" typeid="57" position="1240,380" mirrored="0" nodematch="0" macrotype="2" orientation="0">
			<parameter idx="0" encrypted="0">
        <![CDATA[
***********************************
*     Created by WB Importer      *
***********************************
.subckt WB_LM5161_MAIN_BLOCK_WB_LM5161_MAIN_BLOCK_Ruvt 1 2
Ruvt 1 2 78700.0

.ends]]>
      </parameter>
			<image>
				<label text="Ruvt" position="1258,350" textroot=" " orientation="0" color=""/>  <hotzone points="-10,60,10,-60"/>
        <shape type="line" width="1" color="#0000ff" points="0,60,0,40"/>
        <shape type="line" width="1" color="#0000ff" points="0,40,-10,30"/>
        <shape type="line" width="1" color="#0000ff" points="-10,30,10,10"/>
        <shape type="line" width="1" color="#0000ff" points="10,10,-10,-10"/>
        <shape type="line" width="1" color="#0000ff" points="-10,-10,10,-30"/>
        <shape type="line" width="1" color="#0000ff" points="10,-30,0,-40"/>
        <shape type="line" width="1" color="#0000ff" points="0,-40,0,-60"/>
        <legend text="78.7 kOhm" position="10,-8" orientation="0" fontname="Arial" fontsize="12" bold="0" italic="0" color="#229922"/>
        <pin position="0,-60" dir="0" length="0" text="1"/>
        <pin position="0,60" dir="0" length="0" text="2"/>
      </image>
		</component>
    <component type="LM5161PWPR" typeid="57" position="1720,370" mirrored="0" nodematch="0" macrotype="2" orientation="0">
			<parameter idx="0" encrypted="0">
        <![CDATA[*****************************************************************************
** WB_LM5161_MAIN_BLOCK.U1.WB_LM5161PWP Spice Model
*****************************************************************************
** (C) Copyright 2019 Texas Instruments Incorporated. All rights reserved.
** This model is designed as an aid for customers of Texas Instruments.
** TI and its licensors and suppliers make no warranties, either expressed
** or implied, with respect to this model, including the warranties of
** merchantability or fitness for a particular purpose. The model is
** provided solely on an "as is" basis. The entire risk as to its quality
** and performance is with the customer
*****************************************************************************
*****************************************************************************

.SUBCKT WB_LM5161_MAIN_BLOCK_U1_WB_LM5161PWP_ENCR AGND PGND VIN EN_UVLO RON SS NC_1 FPWM FB VCC BST SW_1 SW_2 NC_2 PAD
.include pspice://../WB_LM5161_MAIN_BLOCK.U1.WB_LM5161PWP.enl
XCALL AGND PGND VIN EN_UVLO RON SS NC_1 FPWM FB VCC BST SW_1 SW_2 NC_2 PAD WB_LM5161_MAIN_BLOCK_U1_WB_LM5161PWP 
.ENDS
]]>
      </parameter>
			<image>
				<label text="U1" position="1580,130" textroot="U1 " orientation="0" color=""/>  <hotzone points="-140,-220,140,220"/>
        <shape type="line" width="Hair" color="#0000ff" points="-100,180,100,180"/>
        <shape type="line" width="Hair" color="#0000ff" points="100,180,100,-180"/>
        <shape type="line" width="Hair" color="#0000ff" points="100,-180,-100,-180"/>
        <shape type="line" width="Hair" color="#0000ff" points="-100,-180,-100,180"/>
        <shape type="line" width="Hair" color="#0000ff" points="-140,100,-100,100"/>
        <shape type="line" width="Hair" color="#0000ff" points="-140,120,-100,120"/>
        <shape type="line" width="Hair" color="#0000ff" points="-140,-140,-100,-140"/>
        <shape type="line" width="Hair" color="#0000ff" points="-140,-40,-100,-40"/>
        <shape type="line" width="Hair" color="#0000ff" points="-140,-100,-100,-100"/>
        <shape type="line" width="Hair" color="#0000ff" points="-140,0,-100,0"/>
        <shape type="line" width="Hair" color="#0000ff" points="140,140,100,140"/>
        <shape type="line" width="Hair" color="#0000ff" points="140,-20,100,-20"/>
        <shape type="line" width="Hair" color="#0000ff" points="140,80,100,80"/>
        <shape type="line" width="Hair" color="#0000ff" points="140,20,100,20"/>
        <shape type="line" width="Hair" color="#0000ff" points="140,-140,100,-140"/>
        <shape type="line" width="Hair" color="#0000ff" points="140,-60,100,-60"/>
        <shape type="line" width="Hair" color="#0000ff" points="140,-80,100,-80"/>
        <shape type="line" width="Hair" color="#0000ff" points="140,-100,100,-100"/>
        <shape type="line" width="Hair" color="#0000ff" points="-140,140,-100,140"/>
        <shape type="line" width="1" color="#ff0000" points="-1,-155,-2,-150"/>
        <shape type="line" width="1" color="#ff0000" points="-1,-157,-1,-157"/>
        <shape type="polygon" width="1" color="#ff0000" fill="#ff0000" points="-7,-159,-7,-153,-11,-153,-11,-152,-10,-151,-9,-149,-8,-148,-7,-148,-6,-149,-5,-148,-4,-146,-1,-144,0,-144,0,-146,1,-148,3,-149,4,-150,4,-153,3,-154,3,-156,1,-156,0,-154,2,-154,1,-152,0,-152,-1,-150,0,-150,0,-149,-1,-148,-3,-148,-4,-149,-3,-152,-5,-152,-4,-154,-3,-154,-3,-154,-2,-156,-4,-156,-4,-158,-4,-159"/>
        <legend text="LM5161PWP" position="-36,-124" orientation="0" fontname="Arial" fontsize="10" bold="0" italic="0" color="4278190208"/>
        <pin position="-140,100" dir="0" length="0" text="AGND">
          <legend text="AGND" position="-118,90" orientation="0" fontname="Arial" fontsize="10" bold="0" italic="0" color="4286578688"/>
        </pin>
        <pin position="-140,120" dir="0" length="0" text="PGND">
          <legend text="PGND" position="-118,110" orientation="0" fontname="Arial" fontsize="10" bold="0" italic="0" color="4286578688"/>
        </pin>
        <pin position="-140,-140" dir="0" length="0" text="VIN">
          <legend text="VIN" position="-118,-150" orientation="0" fontname="Arial" fontsize="10" bold="0" italic="0" color="4286578688"/>
        </pin>
        <pin position="-140,-40" dir="0" length="0" text="EN_UVLO">
          <legend text="EN_UVLO" position="-118,-50" orientation="0" fontname="Arial" fontsize="10" bold="0" italic="0" color="4286578688"/>
        </pin>
        <pin position="-140,-100" dir="0" length="0" text="RON">
          <legend text="RON" position="-118,-110" orientation="0" fontname="Arial" fontsize="10" bold="0" italic="0" color="4286578688"/>
        </pin>
        <pin position="-140,0" dir="0" length="0" text="SS">
          <legend text="SS" position="-118,-10" orientation="0" fontname="Arial" fontsize="10" bold="0" italic="0" color="4286578688"/>
        </pin>
        <pin position="140,140" dir="0" length="0" text="NC_1">
          <legend text="NC_1" position="80,130" orientation="0" fontname="Arial" fontsize="10" bold="0" italic="0" color="4286578688"/>
        </pin>
        <pin position="140,-20" dir="0" length="0" text="FPWM">
          <legend text="FPWM" position="80,-30" orientation="0" fontname="Arial" fontsize="10" bold="0" italic="0" color="4286578688"/>
        </pin>
        <pin position="140,80" dir="0" length="0" text="FB">
          <legend text="FB" position="100,70" orientation="0" fontname="Arial" fontsize="10" bold="0" italic="0" color="4286578688"/>
        </pin>
        <pin position="140,20" dir="0" length="0" text="VCC">
          <legend text="VCC" position="90,10" orientation="0" fontname="Arial" fontsize="10" bold="0" italic="0" color="4286578688"/>
        </pin>
        <pin position="140,-140" dir="0" length="0" text="BST">
          <legend text="BST" position="90,-150" orientation="0" fontname="Arial" fontsize="10" bold="0" italic="0" color="4286578688"/>
        </pin>
        <pin position="140,-60" dir="0" length="0" text="SW_1">
          <legend text="SW_1" position="80,-70" orientation="0" fontname="Arial" fontsize="10" bold="0" italic="0" color="4286578688"/>
        </pin>
        <pin position="140,-80" dir="0" length="0" text="SW_2">
          <legend text="SW_2" position="80,-90" orientation="0" fontname="Arial" fontsize="10" bold="0" italic="0" color="4286578688"/>
        </pin>
        <pin position="140,-100" dir="0" length="0" text="NC_2">
          <legend text="NC_2" position="80,-110" orientation="0" fontname="Arial" fontsize="10" bold="0" italic="0" color="4286578688"/>
        </pin>
        <pin position="-140,140" dir="0" length="0" text="PAD">
          <legend text="PAD" position="-118,130" orientation="0" fontname="Arial" fontsize="10" bold="0" italic="0" color="4286578688"/>
        </pin>
      </image>
		</component>
    <component type="VIn" typeid="4" position="810,150" mirrored="0" nodematch="0" macrotype="2" orientation="0">
			<parameter idx="0" encrypted="0">
			</parameter>
			<image>
				<label text="VIn" position="810,120" textroot="VIn" orientation="0" color="#228822"/>
			</image>
		</component>
    <component type="VOut" typeid="4" position="2920,310" mirrored="0" nodematch="0" macrotype="2" orientation="0">
			<parameter idx="0" encrypted="0">
			</parameter>
			<image>
				<label text="VOut" position="2920,280" textroot="VOut" orientation="0" color="#228822"/>
			</image>
		</component>
    <component type="VSwitch" typeid="4" position="1990,310" mirrored="0" nodematch="0" macrotype="2" orientation="0">
			<parameter idx="0" encrypted="0">
			</parameter>
			<image>
				<label text="VSwitch" position="1990,280" textroot="VSwitch" orientation="0" color="#228822"/>
			</image>
		</component>
    <component type="Vin_2" typeid="57" position="560,310" mirrored="0" nodematch="0" macrotype="2" orientation="0">
			<parameter idx="0" encrypted="0">
        <![CDATA[
***********************************
*     Created by WB Importer      *
***********************************
.SUBCKT INPUT_BLOCK_Vin_WB_STARTUP_VOLTAGE_SOURCE 1 2
Rsource 3 1 1m
Vin1 3 2 PULSE 0 60.0 0 100u
.ENDS]]>
      </parameter>
			<image>
				<label text="Vin_2" position="590,280" textroot=" " orientation="0" color=""/>  <hotzone points="30,-60,-30,60"/>
        <shape type="line" width="Hair" color="#0000ff" points="0,60,0,30"/>
        <shape type="line" width="Hair" color="#0000ff" points="0,-60,0,-30"/>
        <shape type="line" width="Hair" color="#0000ff" points="20,-30,20,-40"/>
        <shape type="line" width="Hair" color="#0000ff" points="14,-34,26,-34"/>
        <shape type="line" width="Hair" color="#0000ff" points="14,34,26,34"/>
        <shape type="line" width="1" color="#0000ff" points="-22,10,-16,10"/>
        <shape type="line" width="1" color="#0000ff" points="-16,10,-14,-10"/>
        <shape type="line" width="1" color="#0000ff" points="-14,-10,22,-10"/>
        <shape type="ellipse" points="-30,30,30,-30" color="#0000ff" width="2"/>
        <pin position="0,-60" dir="0" length="0" text="1"/>
        <pin position="0,60" dir="0" length="0" text="2"/>
      </image>
		</component>
    <component type="ILoad" typeid="34" position="3170,480" mirrored="0" nodematch="0" macrotype="2" orientation="0">
			<parameter idx="0" encrypted="0">
			</parameter>
			<image>